<edges>
    <edge id="e1" from="n2" to="n1"/>
    <edge id="e2" from="n1" to="n4"/>

    <edge id="e3" from="n4" to="n1"/>
    <edge id="e4" from="n1" to="n2"/>

    <edge id="e5" from="n5" to="n1"/>
    <edge id="e6" from="n1" to="n3"/>

    <edge id="e7" from="n3" to="n1"/>
    <edge id="e8" from="n1" to="n5"/>
</edges>