<net>
    <location netOffset="0.00,0.00" convBoundary="-100.00,-100.00,100.00,100.00"/>

    <edge id="north_in" from="n1" to="center" numLanes="2" speed="13.9"/>
    <edge id="south_in" from="n2" to="center" numLanes="2" speed="13.9"/>
    <edge id="east_in" from="n3" to="center" numLanes="2" speed="13.9"/>
    <edge id="west_in" from="n4" to="center" numLanes="2" speed="13.9"/>

    <edge id="north_out" from="center" to="n1" numLanes="2" speed="13.9"/>
    <edge id="south_out" from="center" to="n2" numLanes="2" speed="13.9"/>
    <edge id="east_out" from="center" to="n3" numLanes="2" speed="13.9"/>
    <edge id="west_out" from="center" to="n4" numLanes="2" speed="13.9"/>

    <junction id="center" type="traffic_light" x="0" y="0"/>
</net>